<?xml version="1.0" encoding="UTF-8"?>

<!-- generated by Eclipse SUMO netconvert Version 1.21.0
<netconvertConfiguration xmlns:xsi="http://www.w3.org/2001/XMLSchema-instance" xsi:noNamespaceSchemaLocation="http://sumo.dlr.de/xsd/netconvertConfiguration.xsd">

    <input>
        <node-files value="grid.nod.xml"/>
        <edge-files value="grid.edg.xml"/>
    </input>

    <output>
        <output-file value="grid.net.xml"/>
    </output>

</netconvertConfiguration>
-->

<net version="1.20" junctionCornerDetail="5" limitTurnSpeed="5.50" xmlns:xsi="http://www.w3.org/2001/XMLSchema-instance" xsi:noNamespaceSchemaLocation="http://sumo.dlr.de/xsd/net_file.xsd">

    <location netOffset="300.00,300.00" convBoundary="0.00,0.00,1200.00,1200.00" origBoundary="-300.00,-300.00,900.00,900.00" projParameter="!"/>

    <edge id=":E_0_0" function="internal">
        <lane id=":E_0_0_0" index="0" speed="3.65" length="4.67" shape="1200.00,298.40 1201.20,299.20 1201.60,300.00 1201.20,300.80 1200.00,301.60"/>
    </edge>
    <edge id=":E_1_0" function="internal">
        <lane id=":E_1_0_0" index="0" speed="3.65" length="4.67" shape="1200.00,598.40 1201.20,599.20 1201.60,600.00 1201.20,600.80 1200.00,601.60"/>
    </edge>
    <edge id=":E_2_0" function="internal">
        <lane id=":E_2_0_0" index="0" speed="3.65" length="4.67" shape="1200.00,898.40 1201.20,899.20 1201.60,900.00 1201.20,900.80 1200.00,901.60"/>
    </edge>
    <edge id=":J_0_0_0" function="internal">
        <lane id=":J_0_0_0_0" index="0" speed="6.51" length="9.03" shape="298.40,307.20 298.05,304.75 297.00,303.00 295.25,301.95 292.80,301.60"/>
    </edge>
    <edge id=":J_0_0_1" function="internal">
        <lane id=":J_0_0_1_0" index="0" speed="13.89" length="14.40" shape="298.40,307.20 298.40,292.80"/>
    </edge>
    <edge id=":J_0_0_2" function="internal">
        <lane id=":J_0_0_2_0" index="0" speed="8.00" length="4.07" shape="298.40,307.20 298.95,303.35 299.04,303.20"/>
    </edge>
    <edge id=":J_0_0_3" function="internal">
        <lane id=":J_0_0_3_0" index="0" speed="3.65" length="1.44" shape="298.40,307.20 299.20,306.00"/>
    </edge>
    <edge id=":J_0_0_16" function="internal">
        <lane id=":J_0_0_16_0" index="0" speed="8.00" length="10.13" shape="299.04,303.20 300.60,300.60 303.35,298.95 307.20,298.40"/>
    </edge>
    <edge id=":J_0_0_17" function="internal">
        <lane id=":J_0_0_17_0" index="0" speed="3.65" length="3.23" shape="299.20,306.00 300.00,305.60 300.80,306.00 301.60,307.20"/>
    </edge>
    <edge id=":J_0_0_4" function="internal">
        <lane id=":J_0_0_4_0" index="0" speed="6.51" length="9.03" shape="307.20,301.60 304.75,301.95 303.00,303.00 301.95,304.75 301.60,307.20"/>
    </edge>
    <edge id=":J_0_0_5" function="internal">
        <lane id=":J_0_0_5_0" index="0" speed="13.89" length="14.40" shape="307.20,301.60 292.80,301.60"/>
    </edge>
    <edge id=":J_0_0_6" function="internal">
        <lane id=":J_0_0_6_0" index="0" speed="8.00" length="4.07" shape="307.20,301.60 303.35,301.05 303.20,300.96"/>
    </edge>
    <edge id=":J_0_0_7" function="internal">
        <lane id=":J_0_0_7_0" index="0" speed="3.65" length="1.44" shape="307.20,301.60 306.00,300.80"/>
    </edge>
    <edge id=":J_0_0_18" function="internal">
        <lane id=":J_0_0_18_0" index="0" speed="8.00" length="10.13" shape="303.20,300.96 300.60,299.40 298.95,296.65 298.40,292.80"/>
    </edge>
    <edge id=":J_0_0_19" function="internal">
        <lane id=":J_0_0_19_0" index="0" speed="3.65" length="3.23" shape="306.00,300.80 305.60,300.00 306.00,299.20 307.20,298.40"/>
    </edge>
    <edge id=":J_0_0_8" function="internal">
        <lane id=":J_0_0_8_0" index="0" speed="6.51" length="9.03" shape="301.60,292.80 301.95,295.25 303.00,297.00 304.75,298.05 307.20,298.40"/>
    </edge>
    <edge id=":J_0_0_9" function="internal">
        <lane id=":J_0_0_9_0" index="0" speed="13.89" length="14.40" shape="301.60,292.80 301.60,307.20"/>
    </edge>
    <edge id=":J_0_0_10" function="internal">
        <lane id=":J_0_0_10_0" index="0" speed="8.00" length="4.07" shape="301.60,292.80 301.05,296.65 300.96,296.80"/>
    </edge>
    <edge id=":J_0_0_11" function="internal">
        <lane id=":J_0_0_11_0" index="0" speed="3.65" length="1.44" shape="301.60,292.80 300.80,294.00"/>
    </edge>
    <edge id=":J_0_0_20" function="internal">
        <lane id=":J_0_0_20_0" index="0" speed="8.00" length="10.13" shape="300.96,296.80 299.40,299.40 296.65,301.05 292.80,301.60"/>
    </edge>
    <edge id=":J_0_0_21" function="internal">
        <lane id=":J_0_0_21_0" index="0" speed="3.65" length="3.23" shape="300.80,294.00 300.00,294.40 299.20,294.00 298.40,292.80"/>
    </edge>
    <edge id=":J_0_0_12" function="internal">
        <lane id=":J_0_0_12_0" index="0" speed="6.51" length="9.03" shape="292.80,298.40 295.25,298.05 297.00,297.00 298.05,295.25 298.40,292.80"/>
    </edge>
    <edge id=":J_0_0_13" function="internal">
        <lane id=":J_0_0_13_0" index="0" speed="13.89" length="14.40" shape="292.80,298.40 307.20,298.40"/>
    </edge>
    <edge id=":J_0_0_14" function="internal">
        <lane id=":J_0_0_14_0" index="0" speed="8.00" length="4.07" shape="292.80,298.40 296.65,298.95 296.80,299.04"/>
    </edge>
    <edge id=":J_0_0_15" function="internal">
        <lane id=":J_0_0_15_0" index="0" speed="3.65" length="1.44" shape="292.80,298.40 294.00,299.20"/>
    </edge>
    <edge id=":J_0_0_22" function="internal">
        <lane id=":J_0_0_22_0" index="0" speed="8.00" length="10.13" shape="296.80,299.04 299.40,300.60 301.05,303.35 301.60,307.20"/>
    </edge>
    <edge id=":J_0_0_23" function="internal">
        <lane id=":J_0_0_23_0" index="0" speed="3.65" length="3.23" shape="294.00,299.20 294.40,300.00 294.00,300.80 292.80,301.60"/>
    </edge>
    <edge id=":J_0_1_0" function="internal">
        <lane id=":J_0_1_0_0" index="0" speed="6.51" length="9.03" shape="598.40,307.20 598.05,304.75 597.00,303.00 595.25,301.95 592.80,301.60"/>
    </edge>
    <edge id=":J_0_1_1" function="internal">
        <lane id=":J_0_1_1_0" index="0" speed="13.89" length="14.40" shape="598.40,307.20 598.40,292.80"/>
    </edge>
    <edge id=":J_0_1_2" function="internal">
        <lane id=":J_0_1_2_0" index="0" speed="8.00" length="4.07" shape="598.40,307.20 598.95,303.35 599.04,303.20"/>
    </edge>
    <edge id=":J_0_1_3" function="internal">
        <lane id=":J_0_1_3_0" index="0" speed="3.65" length="1.44" shape="598.40,307.20 599.20,306.00"/>
    </edge>
    <edge id=":J_0_1_16" function="internal">
        <lane id=":J_0_1_16_0" index="0" speed="8.00" length="10.13" shape="599.04,303.20 600.60,300.60 603.35,298.95 607.20,298.40"/>
    </edge>
    <edge id=":J_0_1_17" function="internal">
        <lane id=":J_0_1_17_0" index="0" speed="3.65" length="3.23" shape="599.20,306.00 600.00,305.60 600.80,306.00 601.60,307.20"/>
    </edge>
    <edge id=":J_0_1_4" function="internal">
        <lane id=":J_0_1_4_0" index="0" speed="6.51" length="9.03" shape="607.20,301.60 604.75,301.95 603.00,303.00 601.95,304.75 601.60,307.20"/>
    </edge>
    <edge id=":J_0_1_5" function="internal">
        <lane id=":J_0_1_5_0" index="0" speed="13.89" length="14.40" shape="607.20,301.60 592.80,301.60"/>
    </edge>
    <edge id=":J_0_1_6" function="internal">
        <lane id=":J_0_1_6_0" index="0" speed="8.00" length="4.07" shape="607.20,301.60 603.35,301.05 603.20,300.96"/>
    </edge>
    <edge id=":J_0_1_7" function="internal">
        <lane id=":J_0_1_7_0" index="0" speed="3.65" length="1.44" shape="607.20,301.60 606.00,300.80"/>
    </edge>
    <edge id=":J_0_1_18" function="internal">
        <lane id=":J_0_1_18_0" index="0" speed="8.00" length="10.13" shape="603.20,300.96 600.60,299.40 598.95,296.65 598.40,292.80"/>
    </edge>
    <edge id=":J_0_1_19" function="internal">
        <lane id=":J_0_1_19_0" index="0" speed="3.65" length="3.23" shape="606.00,300.80 605.60,300.00 606.00,299.20 607.20,298.40"/>
    </edge>
    <edge id=":J_0_1_8" function="internal">
        <lane id=":J_0_1_8_0" index="0" speed="6.51" length="9.03" shape="601.60,292.80 601.95,295.25 603.00,297.00 604.75,298.05 607.20,298.40"/>
    </edge>
    <edge id=":J_0_1_9" function="internal">
        <lane id=":J_0_1_9_0" index="0" speed="13.89" length="14.40" shape="601.60,292.80 601.60,307.20"/>
    </edge>
    <edge id=":J_0_1_10" function="internal">
        <lane id=":J_0_1_10_0" index="0" speed="8.00" length="4.07" shape="601.60,292.80 601.05,296.65 600.96,296.80"/>
    </edge>
    <edge id=":J_0_1_11" function="internal">
        <lane id=":J_0_1_11_0" index="0" speed="3.65" length="1.44" shape="601.60,292.80 600.80,294.00"/>
    </edge>
    <edge id=":J_0_1_20" function="internal">
        <lane id=":J_0_1_20_0" index="0" speed="8.00" length="10.13" shape="600.96,296.80 599.40,299.40 596.65,301.05 592.80,301.60"/>
    </edge>
    <edge id=":J_0_1_21" function="internal">
        <lane id=":J_0_1_21_0" index="0" speed="3.65" length="3.23" shape="600.80,294.00 600.00,294.40 599.20,294.00 598.40,292.80"/>
    </edge>
    <edge id=":J_0_1_12" function="internal">
        <lane id=":J_0_1_12_0" index="0" speed="6.51" length="9.03" shape="592.80,298.40 595.25,298.05 597.00,297.00 598.05,295.25 598.40,292.80"/>
    </edge>
    <edge id=":J_0_1_13" function="internal">
        <lane id=":J_0_1_13_0" index="0" speed="13.89" length="14.40" shape="592.80,298.40 607.20,298.40"/>
    </edge>
    <edge id=":J_0_1_14" function="internal">
        <lane id=":J_0_1_14_0" index="0" speed="8.00" length="4.07" shape="592.80,298.40 596.65,298.95 596.80,299.04"/>
    </edge>
    <edge id=":J_0_1_15" function="internal">
        <lane id=":J_0_1_15_0" index="0" speed="3.65" length="1.44" shape="592.80,298.40 594.00,299.20"/>
    </edge>
    <edge id=":J_0_1_22" function="internal">
        <lane id=":J_0_1_22_0" index="0" speed="8.00" length="10.13" shape="596.80,299.04 599.40,300.60 601.05,303.35 601.60,307.20"/>
    </edge>
    <edge id=":J_0_1_23" function="internal">
        <lane id=":J_0_1_23_0" index="0" speed="3.65" length="3.23" shape="594.00,299.20 594.40,300.00 594.00,300.80 592.80,301.60"/>
    </edge>
    <edge id=":J_0_2_0" function="internal">
        <lane id=":J_0_2_0_0" index="0" speed="6.51" length="9.03" shape="898.40,307.20 898.05,304.75 897.00,303.00 895.25,301.95 892.80,301.60"/>
    </edge>
    <edge id=":J_0_2_1" function="internal">
        <lane id=":J_0_2_1_0" index="0" speed="13.89" length="14.40" shape="898.40,307.20 898.40,292.80"/>
    </edge>
    <edge id=":J_0_2_2" function="internal">
        <lane id=":J_0_2_2_0" index="0" speed="8.00" length="4.07" shape="898.40,307.20 898.95,303.35 899.04,303.20"/>
    </edge>
    <edge id=":J_0_2_3" function="internal">
        <lane id=":J_0_2_3_0" index="0" speed="3.65" length="1.44" shape="898.40,307.20 899.20,306.00"/>
    </edge>
    <edge id=":J_0_2_16" function="internal">
        <lane id=":J_0_2_16_0" index="0" speed="8.00" length="10.13" shape="899.04,303.20 900.60,300.60 903.35,298.95 907.20,298.40"/>
    </edge>
    <edge id=":J_0_2_17" function="internal">
        <lane id=":J_0_2_17_0" index="0" speed="3.65" length="3.23" shape="899.20,306.00 900.00,305.60 900.80,306.00 901.60,307.20"/>
    </edge>
    <edge id=":J_0_2_4" function="internal">
        <lane id=":J_0_2_4_0" index="0" speed="6.51" length="9.03" shape="907.20,301.60 904.75,301.95 903.00,303.00 901.95,304.75 901.60,307.20"/>
    </edge>
    <edge id=":J_0_2_5" function="internal">
        <lane id=":J_0_2_5_0" index="0" speed="13.89" length="14.40" shape="907.20,301.60 892.80,301.60"/>
    </edge>
    <edge id=":J_0_2_6" function="internal">
        <lane id=":J_0_2_6_0" index="0" speed="8.00" length="4.07" shape="907.20,301.60 903.35,301.05 903.20,300.96"/>
    </edge>
    <edge id=":J_0_2_7" function="internal">
        <lane id=":J_0_2_7_0" index="0" speed="3.65" length="1.44" shape="907.20,301.60 906.00,300.80"/>
    </edge>
    <edge id=":J_0_2_18" function="internal">
        <lane id=":J_0_2_18_0" index="0" speed="8.00" length="10.13" shape="903.20,300.96 900.60,299.40 898.95,296.65 898.40,292.80"/>
    </edge>
    <edge id=":J_0_2_19" function="internal">
        <lane id=":J_0_2_19_0" index="0" speed="3.65" length="3.23" shape="906.00,300.80 905.60,300.00 906.00,299.20 907.20,298.40"/>
    </edge>
    <edge id=":J_0_2_8" function="internal">
        <lane id=":J_0_2_8_0" index="0" speed="6.51" length="9.03" shape="901.60,292.80 901.95,295.25 903.00,297.00 904.75,298.05 907.20,298.40"/>
    </edge>
    <edge id=":J_0_2_9" function="internal">
        <lane id=":J_0_2_9_0" index="0" speed="13.89" length="14.40" shape="901.60,292.80 901.60,307.20"/>
    </edge>
    <edge id=":J_0_2_10" function="internal">
        <lane id=":J_0_2_10_0" index="0" speed="8.00" length="4.07" shape="901.60,292.80 901.05,296.65 900.96,296.80"/>
    </edge>
    <edge id=":J_0_2_11" function="internal">
        <lane id=":J_0_2_11_0" index="0" speed="3.65" length="1.44" shape="901.60,292.80 900.80,294.00"/>
    </edge>
    <edge id=":J_0_2_20" function="internal">
        <lane id=":J_0_2_20_0" index="0" speed="8.00" length="10.13" shape="900.96,296.80 899.40,299.40 896.65,301.05 892.80,301.60"/>
    </edge>
    <edge id=":J_0_2_21" function="internal">
        <lane id=":J_0_2_21_0" index="0" speed="3.65" length="3.23" shape="900.80,294.00 900.00,294.40 899.20,294.00 898.40,292.80"/>
    </edge>
    <edge id=":J_0_2_12" function="internal">
        <lane id=":J_0_2_12_0" index="0" speed="6.51" length="9.03" shape="892.80,298.40 895.25,298.05 897.00,297.00 898.05,295.25 898.40,292.80"/>
    </edge>
    <edge id=":J_0_2_13" function="internal">
        <lane id=":J_0_2_13_0" index="0" speed="13.89" length="14.40" shape="892.80,298.40 907.20,298.40"/>
    </edge>
    <edge id=":J_0_2_14" function="internal">
        <lane id=":J_0_2_14_0" index="0" speed="8.00" length="4.07" shape="892.80,298.40 896.65,298.95 896.80,299.04"/>
    </edge>
    <edge id=":J_0_2_15" function="internal">
        <lane id=":J_0_2_15_0" index="0" speed="3.65" length="1.44" shape="892.80,298.40 894.00,299.20"/>
    </edge>
    <edge id=":J_0_2_22" function="internal">
        <lane id=":J_0_2_22_0" index="0" speed="8.00" length="10.13" shape="896.80,299.04 899.40,300.60 901.05,303.35 901.60,307.20"/>
    </edge>
    <edge id=":J_0_2_23" function="internal">
        <lane id=":J_0_2_23_0" index="0" speed="3.65" length="3.23" shape="894.00,299.20 894.40,300.00 894.00,300.80 892.80,301.60"/>
    </edge>
    <edge id=":J_1_0_0" function="internal">
        <lane id=":J_1_0_0_0" index="0" speed="6.51" length="9.03" shape="298.40,607.20 298.05,604.75 297.00,603.00 295.25,601.95 292.80,601.60"/>
    </edge>
    <edge id=":J_1_0_1" function="internal">
        <lane id=":J_1_0_1_0" index="0" speed="13.89" length="14.40" shape="298.40,607.20 298.40,592.80"/>
    </edge>
    <edge id=":J_1_0_2" function="internal">
        <lane id=":J_1_0_2_0" index="0" speed="8.00" length="4.07" shape="298.40,607.20 298.95,603.35 299.04,603.20"/>
    </edge>
    <edge id=":J_1_0_3" function="internal">
        <lane id=":J_1_0_3_0" index="0" speed="3.65" length="1.44" shape="298.40,607.20 299.20,606.00"/>
    </edge>
    <edge id=":J_1_0_16" function="internal">
        <lane id=":J_1_0_16_0" index="0" speed="8.00" length="10.13" shape="299.04,603.20 300.60,600.60 303.35,598.95 307.20,598.40"/>
    </edge>
    <edge id=":J_1_0_17" function="internal">
        <lane id=":J_1_0_17_0" index="0" speed="3.65" length="3.23" shape="299.20,606.00 300.00,605.60 300.80,606.00 301.60,607.20"/>
    </edge>
    <edge id=":J_1_0_4" function="internal">
        <lane id=":J_1_0_4_0" index="0" speed="6.51" length="9.03" shape="307.20,601.60 304.75,601.95 303.00,603.00 301.95,604.75 301.60,607.20"/>
    </edge>
    <edge id=":J_1_0_5" function="internal">
        <lane id=":J_1_0_5_0" index="0" speed="13.89" length="14.40" shape="307.20,601.60 292.80,601.60"/>
    </edge>
    <edge id=":J_1_0_6" function="internal">
        <lane id=":J_1_0_6_0" index="0" speed="8.00" length="4.07" shape="307.20,601.60 303.35,601.05 303.20,600.96"/>
    </edge>
    <edge id=":J_1_0_7" function="internal">
        <lane id=":J_1_0_7_0" index="0" speed="3.65" length="1.44" shape="307.20,601.60 306.00,600.80"/>
    </edge>
    <edge id=":J_1_0_18" function="internal">
        <lane id=":J_1_0_18_0" index="0" speed="8.00" length="10.13" shape="303.20,600.96 300.60,599.40 298.95,596.65 298.40,592.80"/>
    </edge>
    <edge id=":J_1_0_19" function="internal">
        <lane id=":J_1_0_19_0" index="0" speed="3.65" length="3.23" shape="306.00,600.80 305.60,600.00 306.00,599.20 307.20,598.40"/>
    </edge>
    <edge id=":J_1_0_8" function="internal">
        <lane id=":J_1_0_8_0" index="0" speed="6.51" length="9.03" shape="301.60,592.80 301.95,595.25 303.00,597.00 304.75,598.05 307.20,598.40"/>
    </edge>
    <edge id=":J_1_0_9" function="internal">
        <lane id=":J_1_0_9_0" index="0" speed="13.89" length="14.40" shape="301.60,592.80 301.60,607.20"/>
    </edge>
    <edge id=":J_1_0_10" function="internal">
        <lane id=":J_1_0_10_0" index="0" speed="8.00" length="4.07" shape="301.60,592.80 301.05,596.65 300.96,596.80"/>
    </edge>
    <edge id=":J_1_0_11" function="internal">
        <lane id=":J_1_0_11_0" index="0" speed="3.65" length="1.44" shape="301.60,592.80 300.80,594.00"/>
    </edge>
    <edge id=":J_1_0_20" function="internal">
        <lane id=":J_1_0_20_0" index="0" speed="8.00" length="10.13" shape="300.96,596.80 299.40,599.40 296.65,601.05 292.80,601.60"/>
    </edge>
    <edge id=":J_1_0_21" function="internal">
        <lane id=":J_1_0_21_0" index="0" speed="3.65" length="3.23" shape="300.80,594.00 300.00,594.40 299.20,594.00 298.40,592.80"/>
    </edge>
    <edge id=":J_1_0_12" function="internal">
        <lane id=":J_1_0_12_0" index="0" speed="6.51" length="9.03" shape="292.80,598.40 295.25,598.05 297.00,597.00 298.05,595.25 298.40,592.80"/>
    </edge>
    <edge id=":J_1_0_13" function="internal">
        <lane id=":J_1_0_13_0" index="0" speed="13.89" length="14.40" shape="292.80,598.40 307.20,598.40"/>
    </edge>
    <edge id=":J_1_0_14" function="internal">
        <lane id=":J_1_0_14_0" index="0" speed="8.00" length="4.07" shape="292.80,598.40 296.65,598.95 296.80,599.04"/>
    </edge>
    <edge id=":J_1_0_15" function="internal">
        <lane id=":J_1_0_15_0" index="0" speed="3.65" length="1.44" shape="292.80,598.40 294.00,599.20"/>
    </edge>
    <edge id=":J_1_0_22" function="internal">
        <lane id=":J_1_0_22_0" index="0" speed="8.00" length="10.13" shape="296.80,599.04 299.40,600.60 301.05,603.35 301.60,607.20"/>
    </edge>
    <edge id=":J_1_0_23" function="internal">
        <lane id=":J_1_0_23_0" index="0" speed="3.65" length="3.23" shape="294.00,599.20 294.40,600.00 294.00,600.80 292.80,601.60"/>
    </edge>
    <edge id=":J_1_1_0" function="internal">
        <lane id=":J_1_1_0_0" index="0" speed="6.51" length="9.03" shape="598.40,607.20 598.05,604.75 597.00,603.00 595.25,601.95 592.80,601.60"/>
    </edge>
    <edge id=":J_1_1_1" function="internal">
        <lane id=":J_1_1_1_0" index="0" speed="13.89" length="14.40" shape="598.40,607.20 598.40,592.80"/>
    </edge>
    <edge id=":J_1_1_2" function="internal">
        <lane id=":J_1_1_2_0" index="0" speed="8.00" length="4.07" shape="598.40,607.20 598.95,603.35 599.04,603.20"/>
    </edge>
    <edge id=":J_1_1_3" function="internal">
        <lane id=":J_1_1_3_0" index="0" speed="3.65" length="1.44" shape="598.40,607.20 599.20,606.00"/>
    </edge>
    <edge id=":J_1_1_16" function="internal">
        <lane id=":J_1_1_16_0" index="0" speed="8.00" length="10.13" shape="599.04,603.20 600.60,600.60 603.35,598.95 607.20,598.40"/>
    </edge>
    <edge id=":J_1_1_17" function="internal">
        <lane id=":J_1_1_17_0" index="0" speed="3.65" length="3.23" shape="599.20,606.00 600.00,605.60 600.80,606.00 601.60,607.20"/>
    </edge>
    <edge id=":J_1_1_4" function="internal">
        <lane id=":J_1_1_4_0" index="0" speed="6.51" length="9.03" shape="607.20,601.60 604.75,601.95 603.00,603.00 601.95,604.75 601.60,607.20"/>
    </edge>
    <edge id=":J_1_1_5" function="internal">
        <lane id=":J_1_1_5_0" index="0" speed="13.89" length="14.40" shape="607.20,601.60 592.80,601.60"/>
    </edge>
    <edge id=":J_1_1_6" function="internal">
        <lane id=":J_1_1_6_0" index="0" speed="8.00" length="4.07" shape="607.20,601.60 603.35,601.05 603.20,600.96"/>
    </edge>
    <edge id=":J_1_1_7" function="internal">
        <lane id=":J_1_1_7_0" index="0" speed="3.65" length="1.44" shape="607.20,601.60 606.00,600.80"/>
    </edge>
    <edge id=":J_1_1_18" function="internal">
        <lane id=":J_1_1_18_0" index="0" speed="8.00" length="10.13" shape="603.20,600.96 600.60,599.40 598.95,596.65 598.40,592.80"/>
    </edge>
    <edge id=":J_1_1_19" function="internal">
        <lane id=":J_1_1_19_0" index="0" speed="3.65" length="3.23" shape="606.00,600.80 605.60,600.00 606.00,599.20 607.20,598.40"/>
    </edge>
    <edge id=":J_1_1_8" function="internal">
        <lane id=":J_1_1_8_0" index="0" speed="6.51" length="9.03" shape="601.60,592.80 601.95,595.25 603.00,597.00 604.75,598.05 607.20,598.40"/>
    </edge>
    <edge id=":J_1_1_9" function="internal">
        <lane id=":J_1_1_9_0" index="0" speed="13.89" length="14.40" shape="601.60,592.80 601.60,607.20"/>
    </edge>
    <edge id=":J_1_1_10" function="internal">
        <lane id=":J_1_1_10_0" index="0" speed="8.00" length="4.07" shape="601.60,592.80 601.05,596.65 600.96,596.80"/>
    </edge>
    <edge id=":J_1_1_11" function="internal">
        <lane id=":J_1_1_11_0" index="0" speed="3.65" length="1.44" shape="601.60,592.80 600.80,594.00"/>
    </edge>
    <edge id=":J_1_1_20" function="internal">
        <lane id=":J_1_1_20_0" index="0" speed="8.00" length="10.13" shape="600.96,596.80 599.40,599.40 596.65,601.05 592.80,601.60"/>
    </edge>
    <edge id=":J_1_1_21" function="internal">
        <lane id=":J_1_1_21_0" index="0" speed="3.65" length="3.23" shape="600.80,594.00 600.00,594.40 599.20,594.00 598.40,592.80"/>
    </edge>
    <edge id=":J_1_1_12" function="internal">
        <lane id=":J_1_1_12_0" index="0" speed="6.51" length="9.03" shape="592.80,598.40 595.25,598.05 597.00,597.00 598.05,595.25 598.40,592.80"/>
    </edge>
    <edge id=":J_1_1_13" function="internal">
        <lane id=":J_1_1_13_0" index="0" speed="13.89" length="14.40" shape="592.80,598.40 607.20,598.40"/>
    </edge>
    <edge id=":J_1_1_14" function="internal">
        <lane id=":J_1_1_14_0" index="0" speed="8.00" length="4.07" shape="592.80,598.40 596.65,598.95 596.80,599.04"/>
    </edge>
    <edge id=":J_1_1_15" function="internal">
        <lane id=":J_1_1_15_0" index="0" speed="3.65" length="1.44" shape="592.80,598.40 594.00,599.20"/>
    </edge>
    <edge id=":J_1_1_22" function="internal">
        <lane id=":J_1_1_22_0" index="0" speed="8.00" length="10.13" shape="596.80,599.04 599.40,600.60 601.05,603.35 601.60,607.20"/>
    </edge>
    <edge id=":J_1_1_23" function="internal">
        <lane id=":J_1_1_23_0" index="0" speed="3.65" length="3.23" shape="594.00,599.20 594.40,600.00 594.00,600.80 592.80,601.60"/>
    </edge>
    <edge id=":J_1_2_0" function="internal">
        <lane id=":J_1_2_0_0" index="0" speed="6.51" length="9.03" shape="898.40,607.20 898.05,604.75 897.00,603.00 895.25,601.95 892.80,601.60"/>
    </edge>
    <edge id=":J_1_2_1" function="internal">
        <lane id=":J_1_2_1_0" index="0" speed="13.89" length="14.40" shape="898.40,607.20 898.40,592.80"/>
    </edge>
    <edge id=":J_1_2_2" function="internal">
        <lane id=":J_1_2_2_0" index="0" speed="8.00" length="4.07" shape="898.40,607.20 898.95,603.35 899.04,603.20"/>
    </edge>
    <edge id=":J_1_2_3" function="internal">
        <lane id=":J_1_2_3_0" index="0" speed="3.65" length="1.44" shape="898.40,607.20 899.20,606.00"/>
    </edge>
    <edge id=":J_1_2_16" function="internal">
        <lane id=":J_1_2_16_0" index="0" speed="8.00" length="10.13" shape="899.04,603.20 900.60,600.60 903.35,598.95 907.20,598.40"/>
    </edge>
    <edge id=":J_1_2_17" function="internal">
        <lane id=":J_1_2_17_0" index="0" speed="3.65" length="3.23" shape="899.20,606.00 900.00,605.60 900.80,606.00 901.60,607.20"/>
    </edge>
    <edge id=":J_1_2_4" function="internal">
        <lane id=":J_1_2_4_0" index="0" speed="6.51" length="9.03" shape="907.20,601.60 904.75,601.95 903.00,603.00 901.95,604.75 901.60,607.20"/>
    </edge>
    <edge id=":J_1_2_5" function="internal">
        <lane id=":J_1_2_5_0" index="0" speed="13.89" length="14.40" shape="907.20,601.60 892.80,601.60"/>
    </edge>
    <edge id=":J_1_2_6" function="internal">
        <lane id=":J_1_2_6_0" index="0" speed="8.00" length="4.07" shape="907.20,601.60 903.35,601.05 903.20,600.96"/>
    </edge>
    <edge id=":J_1_2_7" function="internal">
        <lane id=":J_1_2_7_0" index="0" speed="3.65" length="1.44" shape="907.20,601.60 906.00,600.80"/>
    </edge>
    <edge id=":J_1_2_18" function="internal">
        <lane id=":J_1_2_18_0" index="0" speed="8.00" length="10.13" shape="903.20,600.96 900.60,599.40 898.95,596.65 898.40,592.80"/>
    </edge>
    <edge id=":J_1_2_19" function="internal">
        <lane id=":J_1_2_19_0" index="0" speed="3.65" length="3.23" shape="906.00,600.80 905.60,600.00 906.00,599.20 907.20,598.40"/>
    </edge>
    <edge id=":J_1_2_8" function="internal">
        <lane id=":J_1_2_8_0" index="0" speed="6.51" length="9.03" shape="901.60,592.80 901.95,595.25 903.00,597.00 904.75,598.05 907.20,598.40"/>
    </edge>
    <edge id=":J_1_2_9" function="internal">
        <lane id=":J_1_2_9_0" index="0" speed="13.89" length="14.40" shape="901.60,592.80 901.60,607.20"/>
    </edge>
    <edge id=":J_1_2_10" function="internal">
        <lane id=":J_1_2_10_0" index="0" speed="8.00" length="4.07" shape="901.60,592.80 901.05,596.65 900.96,596.80"/>
    </edge>
    <edge id=":J_1_2_11" function="internal">
        <lane id=":J_1_2_11_0" index="0" speed="3.65" length="1.44" shape="901.60,592.80 900.80,594.00"/>
    </edge>
    <edge id=":J_1_2_20" function="internal">
        <lane id=":J_1_2_20_0" index="0" speed="8.00" length="10.13" shape="900.96,596.80 899.40,599.40 896.65,601.05 892.80,601.60"/>
    </edge>
    <edge id=":J_1_2_21" function="internal">
        <lane id=":J_1_2_21_0" index="0" speed="3.65" length="3.23" shape="900.80,594.00 900.00,594.40 899.20,594.00 898.40,592.80"/>
    </edge>
    <edge id=":J_1_2_12" function="internal">
        <lane id=":J_1_2_12_0" index="0" speed="6.51" length="9.03" shape="892.80,598.40 895.25,598.05 897.00,597.00 898.05,595.25 898.40,592.80"/>
    </edge>
    <edge id=":J_1_2_13" function="internal">
        <lane id=":J_1_2_13_0" index="0" speed="13.89" length="14.40" shape="892.80,598.40 907.20,598.40"/>
    </edge>
    <edge id=":J_1_2_14" function="internal">
        <lane id=":J_1_2_14_0" index="0" speed="8.00" length="4.07" shape="892.80,598.40 896.65,598.95 896.80,599.04"/>
    </edge>
    <edge id=":J_1_2_15" function="internal">
        <lane id=":J_1_2_15_0" index="0" speed="3.65" length="1.44" shape="892.80,598.40 894.00,599.20"/>
    </edge>
    <edge id=":J_1_2_22" function="internal">
        <lane id=":J_1_2_22_0" index="0" speed="8.00" length="10.13" shape="896.80,599.04 899.40,600.60 901.05,603.35 901.60,607.20"/>
    </edge>
    <edge id=":J_1_2_23" function="internal">
        <lane id=":J_1_2_23_0" index="0" speed="3.65" length="3.23" shape="894.00,599.20 894.40,600.00 894.00,600.80 892.80,601.60"/>
    </edge>
    <edge id=":J_2_0_0" function="internal">
        <lane id=":J_2_0_0_0" index="0" speed="6.51" length="9.03" shape="298.40,907.20 298.05,904.75 297.00,903.00 295.25,901.95 292.80,901.60"/>
    </edge>
    <edge id=":J_2_0_1" function="internal">
        <lane id=":J_2_0_1_0" index="0" speed="13.89" length="14.40" shape="298.40,907.20 298.40,892.80"/>
    </edge>
    <edge id=":J_2_0_2" function="internal">
        <lane id=":J_2_0_2_0" index="0" speed="8.00" length="4.07" shape="298.40,907.20 298.95,903.35 299.04,903.20"/>
    </edge>
    <edge id=":J_2_0_3" function="internal">
        <lane id=":J_2_0_3_0" index="0" speed="3.65" length="1.44" shape="298.40,907.20 299.20,906.00"/>
    </edge>
    <edge id=":J_2_0_16" function="internal">
        <lane id=":J_2_0_16_0" index="0" speed="8.00" length="10.13" shape="299.04,903.20 300.60,900.60 303.35,898.95 307.20,898.40"/>
    </edge>
    <edge id=":J_2_0_17" function="internal">
        <lane id=":J_2_0_17_0" index="0" speed="3.65" length="3.23" shape="299.20,906.00 300.00,905.60 300.80,906.00 301.60,907.20"/>
    </edge>
    <edge id=":J_2_0_4" function="internal">
        <lane id=":J_2_0_4_0" index="0" speed="6.51" length="9.03" shape="307.20,901.60 304.75,901.95 303.00,903.00 301.95,904.75 301.60,907.20"/>
    </edge>
    <edge id=":J_2_0_5" function="internal">
        <lane id=":J_2_0_5_0" index="0" speed="13.89" length="14.40" shape="307.20,901.60 292.80,901.60"/>
    </edge>
    <edge id=":J_2_0_6" function="internal">
        <lane id=":J_2_0_6_0" index="0" speed="8.00" length="4.07" shape="307.20,901.60 303.35,901.05 303.20,900.96"/>
    </edge>
    <edge id=":J_2_0_7" function="internal">
        <lane id=":J_2_0_7_0" index="0" speed="3.65" length="1.44" shape="307.20,901.60 306.00,900.80"/>
    </edge>