<nodes>
    <node id="J_0_0" x="0"   y="0"   type="traffic_light" />
    <node id="J_0_1" x="300" y="0"   type="traffic_light" />
    <node id="J_0_2" x="600" y="0"   type="traffic_light" />

    <node id="J_1_0" x="0"   y="300" type="traffic_light" />
    <node id="J_1_1" x="300" y="300" type="traffic_light" />
    <node id="J_1_2" x="600" y="300" type="traffic_light" />

    <node id="J_2_0" x="0"   y="600" type="traffic_light" />
    <node id="J_2_1" x="300" y="600" type="traffic_light" />
    <node id="J_2_2" x="600" y="600" type="traffic_light" />

    <node id="N_0" x="0"    y="900" type="priority" /> <node id="S_0" x="0"    y="-300" type="priority" />
    <node id="N_1" x="300"  y="900" type="priority" /> <node id="S_1" x="300"  y="-300" type="priority" />
    <node id="N_2" x="600"  y="900" type="priority" /> <node id="S_2" x="600"  y="-300" type="priority" />

    <node id="W_0" x="-300" y="0"   type="priority" /> <node id="E_0" x="900"  y="0"    type="priority" />
    <node id="W_1" x="-300" y="300" type="priority" /> <node id="E_1" x="900"  y="300"  type="priority" />
    <node id="W_2" x="-300" y="600" type="priority" /> <node id="E_2" x="900"  y="600"  type="priority" />
</nodes>