<configuration>
    <input>
        <net-file value="grid.net.xml"/>
        <route-files value="grid.rou.xml"/>
    </input>
    <time>
        <begin value="0"/>
    </time>
    <processing>
        <time-to-teleport value="-1"/>
    </processing>
</configuration>